
**** 05/14/09 18:04:12 ********* PSpice 9.2 (Mar 2000) ******** ID# 1 ********

 ** Profile: "SCHEMATIC1-lag filter"  [ D:\ORCAD\WORKS DIPLOMATIKHS\lag filter-SCHEMATIC1-lag filter.sim ] 


 ****     CIRCUIT DESCRIPTION


******************************************************************************




** Creating circuit file "lag filter-SCHEMATIC1-lag filter.sim.cir" 
** WARNING: THIS AUTOMATICALLY GENERATED FILE MAY BE OVERWRITTEN BY SUBSEQUENT SIMULATIONS

*Libraries: 
* Local Libraries :
* From [PSPICE NETLIST] section of d:\ORCAD\PSpice\PSpice.ini file:
.lib "nom.lib" 

*Analysis directives: 
.TRAN  0 20ms 0 
.PROBE V(*) I(*) W(*) D(*) NOISE(*) 
.INC ".\lag filter-SCHEMATIC1.net" 



**** INCLUDING "lag filter-SCHEMATIC1.net" ****
* source LAG FILTER
C_C1         0 VC  1n  
R_R1         VSOURCE VC  1k  
V_V3         VSOURCE 0  
+SIN 0V 1V 1000Hz 0 0 0

**** RESUMING "lag filter-SCHEMATIC1-lag filter.sim.cir" ****
.END

**** 05/14/09 18:04:12 ********* PSpice 9.2 (Mar 2000) ******** ID# 1 ********

 ** Profile: "SCHEMATIC1-lag filter"  [ D:\ORCAD\WORKS DIPLOMATIKHS\lag filter-SCHEMATIC1-lag filter.sim ] 


 ****     INITIAL TRANSIENT SOLUTION       TEMPERATURE =   27.000 DEG C


******************************************************************************



 NODE   VOLTAGE     NODE   VOLTAGE     NODE   VOLTAGE     NODE   VOLTAGE


(   VC)    0.0000  (VSOURCE)    0.0000                   




    VOLTAGE SOURCE CURRENTS
    NAME         CURRENT

    V_V3         0.000E+00

    TOTAL POWER DISSIPATION   0.00E+00  WATTS



          JOB CONCLUDED

          TOTAL JOB TIME             .02
